
     RDKit          3D

 10  9  0  0  0  0  0  0  0  0999 V2000
    1.4037   -0.1922    0.2364 C   0  0  0  0  0  0  0  0  0  0  0  0
    1.5042    1.0623    0.4984 N   0  0  0  0  0  0  0  0  0  0  0  0
    2.2546   -1.0702    0.4381 O   0  0  0  0  0  1  0  0  0  0  0  0
   -2.1172   -1.2751   -0.8507 O   0  0  0  0  0  1  0  0  0  0  0  0
   -1.6146    0.5682    0.6200 O   0  0  0  0  0  0  0  0  0  0  0  0
   -1.0552    0.8839   -1.8507 O   0  0  0  0  0  0  0  0  0  0  0  0
    0.3084   -0.7602   -0.2972 O   0  0  0  0  0  0  0  0  0  0  0  0
   -1.1097   -0.1418   -0.7447 P   0  0  0  0  0  5  0  0  0  0  0  0
    2.4492    1.1119    0.8815 H   0  0  0  0  0  0  0  0  0  0  0  0
   -2.0233   -0.1869    1.0689 H   0  0  0  0  0  0  0  0  0  0  0  0
  1  2  2  3
  1  3  1  0
  1  7  1  0
  4  8  1  0
  5  8  1  0
  6  8  2  0
  7  8  1  0
  2  9  1  0
  5 10  1  0
M  CHG  2   3  -1   4  -1
M  END
