10
FFQKYPRQEYGKAF-UHFFFAOYSA
C  -1.29595628   0.32018824  -0.54353277 0.6299999999999999
N  -2.57639526   0.03203622  -0.44365636 -0.8099999999999996
O  -0.78633206   1.16766472  -1.34446138 -0.6899999999999995
O   1.65016394  -1.53104562  -0.69773790 -0.7100000000000009
O   1.59330230   1.04751230  -0.32817290 -0.7699999999999996
O   1.73397259  -0.51798754   1.71745491 -0.7100000000000009
O  -0.43761366  -0.36402724   0.35563653 -0.6199999999999992
P   1.26278843  -0.44586159   0.28329102 0.9700000000000006
H  -2.63553759  -0.69796443   0.27482187    0.27
H   0.75643617   1.26497067  -0.85367159 0.43000000000000005
