10

C	 -1.5299    0.5928    0.1870
N	 -1.9730   -0.4549   -0.4197
O	 -2.0664    1.6895    0.4009
O	  0.4575   -1.8200    0.2469
O	  1.5961    0.1874   -0.7787
O	  1.9917   -0.1550    1.5958
O	 -0.2968    0.6245    0.7365
P	  0.9185   -0.4177    0.5620
H	 -1.2170   -1.1642   -0.3455
H	  2.1193    0.9176   -0.4128
