    10
 geometry
 C                    -1.30397264     0.36033091    -0.50343841
 N                    -2.56803673    -0.01452008    -0.48963154
 O                    -0.81932960     1.31036380    -1.20390211
 O                     1.60899079    -1.63608680    -0.61417513
 O                     1.64370487     0.95200380    -0.48935751
 O                     1.75826674    -0.42041604     1.70452403
 O                    -0.43079250    -0.33785307     0.37306342
 P                     1.26232178    -0.45920988     0.27692761
 H                    -2.62979413    -0.79150949     0.17214018
 H                     0.74346999     1.31238257    -0.80617911
