    10
 geometry
 C                    -1.54829163     0.67916092    -0.21689244
 N                    -2.05276315    -0.35725769    -0.83086109
 O                    -1.92725980     1.86609205    -0.16649935
 O                     0.57505508    -1.90792617    -0.06842349
 O                     1.51055357     0.23525832    -1.11414608
 O                     1.99983555    -0.25142851     1.39607922
 O                    -0.31265775     0.47492197     0.65668752
 P                     0.96387499    -0.49680186     0.31869840
 H                    -1.43909443    -1.15229582    -0.65634568
 H                     1.49557614     1.18576250    -0.89832557
