    10
 geometry
 C                    -1.44845461     0.69195841    -0.26643999
 N                    -2.04206112    -0.30128460    -0.86607336
 O                    -1.64451498     1.93130263    -0.31710886
 O                     0.70255042    -1.95760944    -0.07671459
 O                     1.45937559     0.33549563    -1.05526788
 O                     2.04072709    -0.27625103     1.42953047
 O                    -0.31976324     0.33499166     0.72192890
 P                     1.01501660    -0.53922010     0.34631351
 H                    -1.53478513    -1.15483653    -0.59908993
 H                     1.03673797     1.21093908    -0.89710683
