    10
 geometry
 C                    -1.70135953     0.65343556    -0.16226362
 N                    -2.10001031    -0.41572311    -0.78692351
 O                    -2.22812870     1.76059899     0.03657721
 O                     0.46318015    -1.82105277    -0.08591145
 O                     1.60023442     0.21296674    -1.18708838
 O                     1.93813550    -0.13644406     1.31624714
 O                    -0.33937748     0.61131602     0.52723748
 P                     0.90108664    -0.41027256     0.24425917
 H                    -1.36436247    -1.13323460    -0.68124191
 H                     2.09543036     0.95389551    -0.80092071
