    10
 geometry
 C                    -1.27714980     0.52128372    -0.35596489
 N                    -2.39950390    -0.14481454    -0.68707265
 O                    -0.91780802     1.66414776    -0.77759278
 O                     1.24604771    -1.80074322    -0.43643401
 O                     1.59093005     0.77517326    -0.73256117
 O                     1.92746797    -0.27294990     1.64325488
 O                    -0.43313214    -0.08513163     0.61594210
 P                     1.19187128    -0.46703199     0.32557888
 H                    -2.37148316    -1.10285392    -0.21614061
 H                     0.70758859     1.18840618    -0.95903832
