    10
 geometry
 C                    -1.29596190     0.38684681    -0.47403939
 N                    -2.53629628    -0.05291133    -0.54371706
 O                    -0.82179523     1.38991594    -1.11352142
 O                     1.51093303    -1.69019995    -0.56958484
 O                     1.63284250     0.91430589    -0.54405871
 O                     1.81288425    -0.37814630     1.68437718
 O                    -0.43866513    -0.28671429     0.43014080
 P                     1.25642173    -0.45770919     0.27893703
 H                    -2.58866046    -0.86153297     0.09073782
 H                     0.73312605     1.31163110    -0.81929997
