    10
 geometry
 C                    -1.30744464     0.34940889    -0.52396605
 N                    -2.58346797     0.03747151    -0.43529845
 O                    -0.81398152     1.26010898    -1.26461449
 O                     1.68935233    -1.58444611    -0.64086223
 O                     1.61145033     1.00381009    -0.39982229
 O                     1.70851586    -0.46537288     1.72257170
 O                    -0.43266537    -0.39650189     0.31118621
 P                     1.27067438    -0.45880202     0.27514442
 H                    -2.62387219    -0.73710502     0.23727740
 H                     0.74626737     1.26691416    -0.86164480
