    10
 geometry
 C                    -1.29902415     0.33272557    -0.53341427
 N                    -2.58012467     0.05407631    -0.42477544
 O                    -0.79896519     1.21979545    -1.29879056
 O                     1.69547425    -1.56260827    -0.66192379
 O                     1.59642169     1.02312041    -0.37158433
 O                     1.71215432    -0.48199477     1.72319713
 O                    -0.43245667    -0.40525221     0.31055802
 P                     1.27213427    -0.45360143     0.27713808
 H                    -2.63771529    -0.71237590     0.25392795
 H                     0.73693002     1.26160057    -0.85436137
