    10
 geometry
 C                    -1.60163429     0.67828998    -0.20697222
 N                    -2.07667036    -0.36651386    -0.82401675
 O                    -2.03207188     1.84092702    -0.09839904
 O                     0.56033424    -1.89610692    -0.07261970
 O                     1.54161587     0.21105635    -1.13465185
 O                     1.97705493    -0.22083819     1.38877885
 O                    -0.31114806     0.50407708     0.61219430
 P                     0.95047909    -0.48179273     0.30471430
 H                    -1.43187386    -1.14599162    -0.65712820
 H                     1.68874290     1.15237860    -0.89192827
