    10
 geometry
 C                    -1.30108722     0.34002729    -0.52980540
 N                    -2.57947817     0.04743874    -0.42906779
 O                    -0.80605280     1.23890543    -1.28363102
 O                     1.69015673    -1.57292597    -0.65332764
 O                     1.60109745     1.01673856    -0.38283246
 O                     1.70851099    -0.47487470     1.72530636
 O                    -0.43264407    -0.40425586     0.30429905
 P                     1.27107193    -0.45506302     0.27821463
 H                    -2.62525045    -0.72181056     0.24951089
 H                     0.73850417     1.26130579    -0.85869519
