    10
 geometry
 C                    -1.29595432     0.31775098    -0.54721572
 N                    -2.57876906     0.04521640    -0.43335502
 O                    -0.78367471     1.15828240    -1.35431580
 O                     1.67253963    -1.52383161    -0.69939337
 O                     1.58612034     1.05129069    -0.32086168
 O                     1.72614029    -0.51988689     1.71991586
 O                    -0.43773101    -0.38396341     0.33902676
 P                     1.26378717    -0.44738247     0.28180513
 H                    -2.63784575    -0.68390218     0.28628022
 H                     0.75021599     1.26191180    -0.85191496
