    10
 geometry
 C                    -1.50439474     0.68456479    -0.23649089
 N                    -2.04722159    -0.33579477    -0.84520726
 O                    -1.82756369     1.88938321    -0.21847230
 O                     0.61612790    -1.92835678    -0.06522125
 O                     1.48966324     0.26645533    -1.09270127
 O                     2.01613577    -0.26692855     1.40808712
 O                    -0.31031994     0.43396645     0.68070037
 P                     0.98223540    -0.51348671     0.33133489
 H                    -1.47825264    -1.16677603    -0.64095870
 H                     1.32841885     1.21245877    -0.90109930
