    10
 geometry
 C                    -1.70914373     0.65384653    -0.17043334
 N                    -2.13902044    -0.40963364    -0.78676844
 O                    -2.21628056     1.77098504     0.01605300
 O                     0.50354904    -1.82673883    -0.08517057
 O                     1.59685443     0.22805373    -1.16628135
 O                     1.95723009    -0.14720956     1.34077250
 O                    -0.32738482     0.58586654     0.52983786
 P                     0.92416531    -0.41584073     0.26267580
 H                    -1.43179610    -1.14449041    -0.69044334
 H                     2.10665535     0.98064704    -0.83027069
