    10
 geometry
 C                    -1.48889467     0.68773841    -0.24170335
 N                    -2.05036213    -0.33011628    -0.83874859
 O                    -1.78252027     1.89468898    -0.23777550
 O                     0.63953020    -1.93593493    -0.07101351
 O                     1.49541119     0.28014189    -1.08321500
 O                     2.01499646    -0.26058874     1.41265039
 O                    -0.31294874     0.41401812     0.67228653
 P                     0.98932257    -0.51980642     0.32971151
 H                    -1.49338394    -1.15743865    -0.63394507
 H                     1.25367789     1.20278333    -0.88827599
