    10
 geometry
 C                    -1.29782141     0.58448879    -0.29666727
 N                    -2.21013049    -0.22806546    -0.78748056
 O                    -1.05860006     1.79501379    -0.60015177
 O                     0.98076209    -1.85432380    -0.28871247
 O                     1.51720996     0.66137714    -0.83435471
 O                     1.98928035    -0.27871078     1.54621897
 O                    -0.43405174     0.04031783     0.74823255
 P                     1.09169718    -0.48030352     0.34374063
 H                    -2.00491005    -1.14355622    -0.38959317
 H                     0.69139273     1.17924795    -1.02126077
