    10
 geometry
 C                    -1.31272088     0.50215498    -0.36762219
 N                    -2.41237089    -0.15333474    -0.67457187
 O                    -0.94113045     1.64139675    -0.81047159
 O                     1.24148005    -1.78523225    -0.41823680
 O                     1.60245215     0.77399797    -0.71995873
 O                     1.93078382    -0.29728538     1.62536616
 O                    -0.43255463    -0.09780705     0.60789650
 P                     1.19280650    -0.46462539     0.31351181
 H                    -2.33259217    -1.05200924    -0.20545372
 H                     0.72867508     1.20823007    -0.93048814
