    10
 geometry
 C                    -1.68635617     0.65897928    -0.17418885
 N                    -2.15416560    -0.39715175    -0.78056159
 O                    -2.17474227     1.78925088     0.00099855
 O                     0.53864550    -1.85318037    -0.08589390
 O                     1.62139858     0.21077562    -1.15947647
 O                     1.95020746    -0.14860720     1.35918839
 O                    -0.32304944     0.56681230     0.51559213
 P                     0.93947813    -0.43713963     0.26540007
 H                    -1.46704906    -1.14942416    -0.68771390
 H                     2.02046145     1.03517073    -0.83337299
