    10
 geometry
 C                    -1.30018689     0.37756507    -0.48516205
 N                    -2.54320392    -0.03826349    -0.52151073
 O                    -0.83323297     1.35861553    -1.15296440
 O                     1.54944666    -1.66725960    -0.58578349
 O                     1.63732771     0.92402245    -0.52581089
 O                     1.78541835    -0.39877005     1.69416746
 O                    -0.43091372    -0.30007809     0.40516508
 P                     1.25512667    -0.45820429     0.27598294
 H                    -2.59593060    -0.83363372     0.12386580
 H                     0.74097729     1.31149189    -0.80797828
