    10
 geometry
 C                    -1.30841611     0.43733653    -0.43806606
 N                    -2.49947561    -0.08898084    -0.59440373
 O                    -0.87918091     1.49883485    -0.99917054
 O                     1.42973482    -1.74408252    -0.51010969
 O                     1.62605125     0.85362273    -0.61531401
 O                     1.86256009    -0.33936784     1.66408108
 O                    -0.43482775    -0.20298312     0.49143330
 P                     1.24172173    -0.46419476     0.28582939
 H                    -2.50389361    -0.94069036    -0.02434300
 H                     0.73055468     1.26599104    -0.83996531
