    10
 geometry
 C                    -1.60341714     0.62034857    -0.14824286
 N                    -2.04651714    -0.42735143    -0.75494286
 O                    -2.13991714     1.71704857     0.06565714
 O                     0.38398286    -1.79245143    -0.08834286
 O                     1.52258286     0.21494857    -1.11394286
 O                     1.91818286    -0.12745143     1.26055714
 O                    -0.37031714     0.65204857     0.40125714
 P                     0.84498286    -0.39015143     0.22675714
 H                    -1.29051714    -1.13665143    -0.68074286
 H                     2.04578286     0.94514857    -0.74804286
