    10
 geometry
 C                    -1.29566924     0.39641717    -0.46030537
 N                    -2.53033058    -0.06515315    -0.55606046
 O                    -0.83016053     1.41509481    -1.07815390
 O                     1.47654249    -1.70098834    -0.55026760
 O                     1.63507394     0.90150064    -0.56038214
 O                     1.82906300    -0.36509683     1.67578313
 O                    -0.43637759    -0.26439468     0.44290595
 P                     1.25323654    -0.45994367     0.28128057
 H                    -2.56773146    -0.88385008     0.05451534
 H                     0.73118200     1.30189983    -0.82934411
