    10
 geometry
 C                    -1.65575179     0.66458091    -0.18235517
 N                    -2.14358393    -0.38273440    -0.79415436
 O                    -2.11496676     1.81225893    -0.03291385
 O                     0.56252342    -1.88132366    -0.07015498
 O                     1.61237713     0.20736407    -1.14964672
 O                     1.95313475    -0.17275563     1.37185509
 O                    -0.31685065     0.53495543     0.52435590
 P                     0.95168292    -0.46547230     0.27554462
 H                    -1.47377225    -1.14220494    -0.67308530
 H                     1.89003574     1.10081731    -0.84947381
