    10
 geometry
 C                    -1.29708454     0.32185751    -0.54464769
 N                    -2.57939137     0.04768302    -0.43217203
 O                    -0.78732901     1.16991182    -1.34271828
 O                     1.67841059    -1.53145565    -0.69124197
 O                     1.58584438     1.04443681    -0.32991472
 O                     1.72581103    -0.51137817     1.72035303
 O                    -0.43668927    -0.39037412     0.33175494
 P                     1.26470360    -0.44967508     0.28159667
 H                    -2.63734469    -0.68824331     0.27977020
 H                     0.74789784     1.26272288    -0.85280872
