    10
 geometry
 C                    -1.29864849     0.32928776    -0.53553792
 N                    -2.58107498     0.05689160    -0.42323326
 O                    -0.79624745     1.20863357    -1.30745071
 O                     1.69824782    -1.55665976    -0.66773162
 O                     1.59362734     1.02812259    -0.36089699
 O                     1.71252710    -0.48670227     1.72311149
 O                    -0.43253448    -0.40652072     0.30950748
 P                     1.27211326    -0.45327691     0.27734204
 H                    -2.64193299    -0.70629762     0.26089780
 H                     0.73875143     1.26200747    -0.85603688
