    10
 geometry
 C                    -1.70038256     0.65504095    -0.16723494
 N                    -2.14568429    -0.40591916    -0.78067081
 O                    -2.20127927     1.77683253     0.01111628
 O                     0.51189307    -1.83368555    -0.09014323
 O                     1.61516942     0.21172594    -1.16129588
 O                     1.95305020    -0.14174430     1.34734606
 O                    -0.32530983     0.57770556     0.52120291
 P                     0.93089285    -0.42396004     0.26267783
 H                    -1.44518202    -1.14491257    -0.69292108
 H                     2.07166100     1.00440235    -0.83010571
