    10
 geometry
 C                    -1.30483905     0.35432551    -0.51509938
 N                    -2.58113756     0.02775407    -0.44842578
 O                    -0.81227566     1.27395894    -1.24772804
 O                     1.69086278    -1.58807035    -0.63944565
 O                     1.62055081     0.98407977    -0.42943727
 O                     1.71325419    -0.45777235     1.72121126
 O                    -0.43936267    -0.37812657     0.33067586
 P                     1.26912062    -0.46076250     0.27742308
 H                    -2.63030823    -0.74950635     0.22252905
 H                     0.73896335     1.26960556    -0.85173170
